LAMMPS (3 Mar 2020)

#----------------------------------------------#
#-------------- BULK SIMULATION ---------------#
#----------------------------------------------#

# ---------- INPUT ----------
# Molecule data
variable        MolData     string "Decane.TraPPE-UA"
variable        N           equal 2000                   # Nr. of molecules
# Read data
variable        i_ReadData  equal 0                     # 0 - create atoms, 1,2,3,... - read data file
variable        file        string "Bulk_NVT"           # Data file to read (just file ending)
# State point
variable        tmp         equal 373.15
variable        rho_in      equal 0.76028
# Strain rate
variable        s_rate      equal 1.0e+10
# Numerics
variable        dt          equal 0.0005
variable        n_run       equal 22e6                   # NVT run
variable        n_equ       equal 1e4                   # Nr. of ts before production run
variable        c_Tdamp     equal 100                   # Suggested by lammps: 100
# Ensemble string
variable        ensemble    string "NVT"
# Write data
variable        do_set_E    equal 0                     # Scale total Energy at the end of run
# ---------------------------

# ---------- Simulation setup ---------
variable        norun       equal 0+1

# Set simulation conditions
units           metal
atom_style      full

dimension       3
atom_modify     map array
boundary        p p p
neighbor        2 multi
neigh_modify    every 2 delay 2 check yes

# Set timestep
timestep        0.0005

# Define lower start density
variable        rho_start equal 0.5*0.76028

include         Decane.TraPPE-UA.inMolData
# -------------------- MolData --------------------
# Molecule:     n-Decane
# Force field:  TraPPE-UA
# Source:       Martin, M. G.; Siepmann, J. I. Transferable Potentials for Phase Equilibria. 1. United-Atom Description of n-Alkanes. The Journal of Physical Chemistry B 102 (14), 2569â€“2577.

variable        M_molar equal 142.2818

variable       L_box equal ((2000*142.2818*1e24)/(0.38014*6.02214076e23))^(1/3)
region         SimBox block 0 107.521411721821 0 107.521411721821 0 107.521411721821
create_box     4 SimBox bond/types 1 angle/types 3 dihedral/types 4 extra/bond/per/atom 2 extra/angle/per/atom 3 extra/dihedral/per/atom 4 extra/special/per/atom 6
Created orthogonal box = (0 0 0) to (107.521 107.521 107.521)
molecule       1 ./Decane_UA.molecule
Read molecule 1:
  10 atoms with max type 2
  9 bonds with max type 1
  8 angles with max type 1
  7 dihedrals with max type 1
  0 impropers with max type 0
create_atoms   0 random 2000 633 NULL mol 1 573
Created 20000 atoms

# Include Force Field Parameter
include          TraPPE-UA.parameter
# -------------------- MolData --------------------
# Molecule:     n-Decane
# Force field:  TraPPE
# ----- Sources: -----

# Mass of particeles ( https://de.webqc.org/mmcalc.php )
mass            1 15.0345       # CH3
mass            2 14.0266       # CH2
mass            3 13.0186       # CH
mass            4 12.0107       # C

# Charges of particles
set                 type * charge 0.0
Setting atom values ...
  20000 settings made for charge

# TraPPE FF
# Nonbonded interaction
 pair_style      lj/cut 14
#pair_style      lj/long/coul/long long off 14
pair_coeff      1 1 0.00844499   3.75
pair_coeff      2 2 0.00396397   3.95
pair_coeff      3 3 0.000861733  4.68
pair_coeff      4 4 0.0000430867 6.4

pair_modify     mix arithmetic
pair_modify     tail yes

# kspace_style    ewald/disp 1.0e-4

# Bonded interaction
bond_style      harmonic
bond_coeff      1  9.756926 1.540           # CHARMM
# bond_coeff      1 14.820905 1.540           # GROMOS (4) -> actually parameter for quartic bond
# bond_coeff      1 11.621583 1.540           # OPLS-AA (5)

angle_style     harmonic
angle_coeff     1 2.692917 114
angle_coeff     2 2.692917 112
angle_coeff     3 2.692917 109.47

dihedral_style  fourier
dihedral_coeff  1 3                0.0305941 1 0 -0.00587614 2 180 0.0681905 3 0
dihedral_coeff  2 4 -0.0216347 0 0 0.0369451 1 0 -0.00963850 2 180 0.0380257 3 0
dihedral_coeff  3 1                                                0.0397509 3 0
dihedral_coeff  4 4 -0.0216347 0 0 0.0369451 1 0 -0.00963850 2 180 0.0380257 3 0

# Use of shake algorithm (0 - no, 1 - yes)
variable        do_shake equal 0

# Use multiple time step integrator 'respa'
# run_style       respa 2 2 2 bond 1 angle 2

change_box      all triclinic
Changing box ...
  triclinic box = (0 0 0) to (107.521 107.521 107.521) with tilt (0 0 0)

# Set density by setting box length
variable 		factor_L equal "(density / v_rho_in)^(1/3)"
change_box 		all x scale 0.793700502699948 y scale 0.793700502699948 z scale 0.793700502699948 remap
Changing box ...
  triclinic box = (11.0908 0 0) to (96.4306 107.521 107.521) with tilt (0 0 0)
  triclinic box = (11.0908 11.0908 0) to (96.4306 96.4306 107.521) with tilt (0 0 0)
  triclinic box = (11.0908 11.0908 11.0908) to (96.4306 96.4306 96.4306) with tilt (0 0 0)

# Set velocity atoms defined by temperature
velocity all create 373.15 19

# ---------- Minimize Eenergy ---------
minimize   0.001 1.0e-4 1000 10000
  update every 1 steps, delay 0 steps, check yes
Setting up cg style minimization ...
  Unit style    : metal
  Current step  : 0
Step Temp E_pair E_mol TotEng Press
0       373.15 2.9274925e+17    18650.198 2.9274925e+17 3.0186399e+18
Loop time of 2.3462 on 24 procs for 360 steps with 20000 atoms

Minimization stats:
  Stopping criterion = energy tolerance
  Energy initial, next-to-last, final =
  Force two-norm initial, final = 4.74897e+19 4.41439
  Force max component initial, final = 3.14897e+19 1.33951
  Final line search alpha, max atom move = 0.122307 0.163832
  Iterations, force evaluations = 360 432

# -------------- MD NVT ---------------
# NpT/NVT Setup
variable        Tdamp equal 100*dt

# Log File
thermo          1000
thermo_style    custom step atoms vol temp press density etotal pe ke

# Ensemble Setup and Shake Fix
fix             NVT all nvt temp 373.15 373.15 0.05

# --- Equilibration ---
run             10000
Setting up Verlet run ...
  Unit style    : metal
  Current step  : 360
  Time step     : 0.0005
Step Atoms Volume Temp Press Density TotEng PotEng KinEng
360    20000    621519.62       373.15     3221.364      0.76028    163.16024   -801.45999    964.62023
Averages over the last 6 of 12 rows, steps 6000 to 10360:
Atoms Volume Temp Press Density TotEng PotEng KinEng
20000 621520 371.13 1233.18 0.76028 933.795 -25.603 959.398
Loop time of 32.9788 on 24 procs for 10000 steps with 20000 atoms

# --- Actual Run ---
reset_timestep  0

unfix           NVT

# Setup for sllod
fix             NVT_sllod all nvt/sllod temp 373.15 373.15 0.05
variable        s_rate_ps equal 10000000000*1e-12
fix             shear all deform 1 yz erate 0.01 remap v

include         in.ThermoOutput_sllod
# Script to write out data for subsequent calculation of transport coefficients

# ----------  General ----------
variable 		dt equal dt
variable        N_atoms equal atoms
variable 		V equal vol
compute         T_deform all temp/deform
thermo_modify   temp T_deform
variable 		T equal c_T_deform
compute         p_deform all pressure T_deform
thermo_modify   press p_deform
variable		p equal c_p_deform
variable		p equal press
variable		pxy equal c_p_deform[4]
variable		pxz equal c_p_deform[5]
variable		pyz equal c_p_deform[6]
variable		rho equal density
variable 		Etot equal etotal
variable 		Ekin equal ke
variable 		Epot equal pe
variable        eta equal -c_p_deform[6]*1e5/v_s_rate
MolType: Decane.TraPPE-UA; TimeStep: 0.0005; No. Atoms: 20000;

# Print Simulation info to file -> info.dat
MolType: Decane.TraPPE-UA
TimeStep: 0.0005
No. Atoms: 20000
Average Molar Mass: 142.2818

# ---------- Thermodynamics Output to Calculate Averages ----------
# -> output: thermo.dat
# Averaging Setup
variable		nfre equal 1000
fix				thermo_ave all ave/time 1 1000 1000 					v_T v_p v_rho v_Etot v_Ekin v_Epot v_pyz v_eta 					file thermo.NVT.1.dat

# ---------- Velocities along z axis ----------
# -> output: vy_profile.dat
variable        nbin equal 10
variable        dz equal 1/10
variable		neve_pro equal 1
variable		nrep_pro equal 1000
variable		nfre_pro equal 1000
compute         layers all chunk/atom bin/1d z center 0.1 units reduced
fix		        profile all ave/chunk 1 1000 1000 layers vy file vy_profile.dat

# ---------- Atoms Positions to Calculate Mean Square Displacement ----------
# -> output: atoms_position.dump
# variable    	ndump equal 1000

run             22000000
Setting up Verlet run ...
  Unit style    : metal
  Current step  : 0
  Time step     : 0.0005
Step Atoms Volume Temp Press Density TotEng PotEng KinEng
0    20000    621519.62    372.00995    1149.3157      0.76028    933.53366   -28.139448    961.67311
Averages over the last 11001 of 22001 rows, steps 11000000 to 22000000:
Atoms Volume Temp Press Density TotEng PotEng KinEng
20000 621520 373.143 1003.24 0.76028 958.956 -5.64642 964.602
Loop time of 111949 on 24 procs for 22000000 steps with 20000 atoms

unfix           NVT_sllod

# Write Data File
write_data      data.1.Bulk_NVT nocoeff nofix
System init for write_data ...

shell           mv log.lammps log.1.Bulk_NVT

Please see the log.cite file for references relevant to this simulation
